!-----------------------------------------------------------------------
&namrun        !   parameters of the run
!-----------------------------------------------------------------------
   nn_it000      =    1    !  first time step
   nn_itend      =    2000 !  last  time step
/
!-----------------------------------------------------------------------
&namdom        !   time and space domain
!-----------------------------------------------------------------------
   rn_Dt       =    1200. ! time step value
/
